STAAD SPACE
START JOB INFORMATION
ENGINEER DATE 02-Aug-24
END JOB INFORMATION
INPUT WIDTH 79
UNIT METER KN
JOINT COORDINATES
1 0 0 0; 2 6.10001 0 0; 3 12.2 0 0; 4 18.3 0 0; 5 24.4 0 0; 6 0 0 5.00001;
7 6.10001 0 5.00001; 8 12.2 0 5.00001; 9 18.3 0 5.00001; 10 24.4 0 5.00001;
11 0 0 8.90002; 12 6.10001 0 8.90002; 13 12.2 0 8.90002; 14 18.3 0 8.90002;
15 24.4 0 8.90002; 16 0 0 15.7; 17 6.10001 0 15.7; 18 12.2 0 15.7;
19 18.3 0 15.7; 20 24.4 0 15.7; 21 0 3.50001 0; 22 6.10001 3.50001 0;
23 12.2 3.50001 0; 24 18.3 3.50001 0; 25 24.4 3.50001 0; 26 0 3.50001 5.00001;
27 6.10001 3.50001 5.00001; 28 12.2 3.50001 5.00001; 29 18.3 3.50001 5.00001;
30 24.4 3.50001 5.00001; 31 0 3.50001 8.90002; 32 6.10001 3.50001 8.90002;
33 12.2 3.50001 8.90002; 34 18.3 3.50001 8.90002; 35 24.4 3.50001 8.90002;
36 0 3.50001 15.7; 37 6.10001 3.50001 15.7; 38 12.2 3.50001 15.7;
39 18.3 3.50001 15.7; 40 24.4 3.50001 15.7; 41 0 6.75001 0;
42 6.10001 6.75001 0; 43 12.2 6.75001 0; 44 18.3 6.75001 0; 45 24.4 6.75001 0;
46 0 6.75001 5.00001; 47 6.10001 6.75001 5.00001; 48 12.2 6.75001 5.00001;
49 18.3 6.75001 5.00001; 50 24.4 6.75001 5.00001; 51 0 6.75001 8.90002;
52 6.10001 6.75001 8.90002; 53 12.2 6.75001 8.90002; 54 18.3 6.75001 8.90002;
55 24.4 6.75001 8.90002; 56 0 6.75001 15.7; 57 6.10001 6.75001 15.7;
58 12.2 6.75001 15.7; 59 18.3 6.75001 15.7; 60 24.4 6.75001 15.7; 61 0 10 0;
62 6.10001 10 0; 63 12.2 10 0; 64 18.3 10 0; 65 24.4 10 0; 66 0 10 5.00001;
67 6.10001 10 5.00001; 68 12.2 10 5.00001; 69 18.3 10 5.00001;
70 24.4 10 5.00001; 71 0 10 8.90002; 72 6.10001 10 8.90002; 73 12.2 10 8.90002;
# ... 63 like lines cut
MEMBER INCIDENCES
1 1 2; 2 2 3; 3 3 4; 4 4 5; 5 1 6; 6 2 7; 7 3 8; 8 4 9; 9 5 10; 10 6 11;
11 7 12; 12 8 13; 13 9 14; 14 10 15; 15 11 16; 16 12 17; 17 13 18; 18 14 19;
19 15 20; 20 16 17; 21 17 18; 22 18 19; 23 19 20; 24 11 12; 25 12 13; 26 13 14;
27 14 15; 28 6 7; 29 7 8; 30 8 9; 31 9 10; 32 1 21; 33 2 22; 34 3 23; 35 4 24;
36 5 25; 37 6 257; 38 7 27; 39 8 28; 40 9 29; 41 10 30; 42 11 258; 43 12 32;
44 13 33; 45 14 34; 46 15 35; 47 16 36; 48 17 37; 49 18 38; 50 19 39; 51 20 40;
52 21 22; 53 22 23; 54 23 24; 55 24 25; 56 21 26; 57 22 27; 58 23 28; 59 24 29;
60 25 30; 61 257 258; 62 27 32; 63 28 33; 64 29 34; 65 30 35; 66 31 36;
67 32 37; 68 33 38; 69 34 39; 70 35 40; 71 36 37; 72 37 38; 73 38 39; 74 39 40;
75 31 32; 76 32 33; 77 33 34; 78 34 35; 79 26 27; 80 27 28; 81 28 29; 82 29 30;
83 21 41; 84 22 42; 85 23 43; 86 24 44; 87 25 45; 88 26 263; 89 27 47;
90 28 48; 91 29 49; 92 30 50; 93 31 259; 94 32 52; 95 33 53; 96 34 54;
97 35 55; 98 36 56; 99 37 57; 100 38 58; 101 39 59; 102 40 60; 103 41 42;
104 42 43; 105 43 44; 106 44 45; 107 41 46; 108 42 47; 109 43 48; 110 44 49;
111 45 50; 112 263 259; 113 47 52; 114 48 53; 115 49 54; 116 50 55; 117 51 56;
118 52 57; 119 53 58; 120 54 59; 121 55 60; 122 56 57; 123 57 58; 124 58 59;
125 59 60; 126 51 52; 127 52 53; 128 53 54; 129 54 55; 130 46 47; 131 47 48;
132 48 49; 133 49 50; 134 41 61; 135 42 62; 136 43 63; 137 44 64; 138 45 65;
139 46 264; 140 47 67; 141 48 68; 142 49 69; 143 50 70; 144 51 265; 145 52 72;
146 53 73; 147 54 74; 148 55 75; 149 56 76; 150 57 77; 151 58 78; 152 59 79;
# ... 74 like lines cut
DEFINE MATERIAL START
ISOTROPIC CONCRETE
E 2.17184e+07
POISSON 0.17
DENSITY 23.5615
ALPHA 5.5e-06
DAMP 0.05
G 9.28137e+06
TYPE CONCRETE
STRENGTH FCU 27578.9
END DEFINE MATERIAL
MEMBER PROPERTY
1 TO 561 570 TO 613 PRIS YD 0.8 ZD 0.8
CONSTANTS
MATERIAL CONCRETE ALL
SUPPORTS
221 TO 240 FIXED
LOAD 1 LOADTYPE Dead  TITLE DL
LOAD 2 LOADTYPE Live  TITLE LL
LOAD 3 LOADTYPE Roof Live  TITLE RLL
LOAD 4 LOADTYPE Wind  TITLE WL-X
LOAD 5 LOADTYPE Wind  TITLE WL-Y
FINISH
